CemigDFeeders/IIIU12/IIIU12SegmentosMT.dss
new line.TR10269099 bus1=BMT172171178.1.2.3,bus2=BMT172171179.1.2.3,Phases=3,Linecode=CAB202_3_3,Length=0.033010000,Units=km
new line.TR10269106 bus1=BMT172171178.1.2.3,bus2=BMT172171180.1.2.3,Phases=3,Linecode=CAB103_3_3,Length=0.068054000,Units=km
new line.TR10275854 bus1=BMT6479951B.1,bus2=BMT163873999.1,Phases=1,Linecode=CAB202_3_1,Length=0.094989000,Units=km
new line.TR10618245 bus1=BMT163874516.3,bus2=BMT6881226B.3,Phases=1,Linecode=CAB202_3_1,Length=0.090455000,Units=km
new line.TR10618252 bus1=BMT6881226B.3,bus2=BMT6881233B.3,Phases=1,Linecode=CAB202_3_1,Length=0.090857000,Units=km
new line.TR10618259 bus1=BMT6881233B.3,bus2=BMT6881240B.3,Phases=1,Linecode=CAB202_3_1,Length=0.114001000,Units=km
new line.TR10618266 bus1=BMT6881240B.3,bus2=BMT163874517.3,Phases=1,Linecode=CAB202_3_1,Length=0.109584000,Units=km
new line.TR10618336 bus1=BMT3242228B.3,bus2=BMT163874594.3,Phases=1,Linecode=CAB202_3_1,Length=0.065935000,Units=km
new line.TR10618343 bus1=BMT163874594.3,bus2=BMT163874595.3,Phases=1,Linecode=CAB202_3_1,Length=0.079496000,Units=km
new line.TR10618357 bus1=BMT163874594.3,bus2=BMT6881324B.3,Phases=1,Linecode=CAB202_3_1,Length=0.049397000,Units=km
new line.TR10618364 bus1=BMT6881324B.3,bus2=BMT6881331B.3,Phases=1,Linecode=CAB202_3_1,Length=0.080097000,Units=km
new line.TR10618385 bus1=BMT6881345B.3,bus2=BMT6881352B.3,Phases=1,Linecode=CAB202_3_1,Length=0.095883000,Units=km
new line.TR10618392 bus1=BMT6881331B.3,bus2=BMT6881352B.3,Phases=1,Linecode=CAB202_3_1,Length=0.196125000,Units=km
new line.TR10618483 bus1=BMT6881345B.3,bus2=BMT163874596.3,Phases=1,Linecode=CAB202_3_1,Length=0.060197000,Units=km
new line.TR10620828 bus1=BMT171870906.2,bus2=BMT6883431B.2,Phases=1,Linecode=CAB202_3_1,Length=0.129233000,Units=km
new line.TR10620835 bus1=BMT6883431B.2,bus2=BMT6883438B.2,Phases=1,Linecode=CAB202_3_1,Length=0.099388000,Units=km
new line.TR10620842 bus1=BMT6883438B.2,bus2=BMT6883445B.2,Phases=1,Linecode=CAB202_3_1,Length=0.093041000,Units=km
new line.TR10620849 bus1=BMT6883445B.2,bus2=BMT6883452B.2,Phases=1,Linecode=CAB202_3_1,Length=0.115411000,Units=km
new line.TR10620856 bus1=BMT6883452B.2,bus2=BMT171870908.2,Phases=1,Linecode=CAB202_3_1,Length=0.090226000,Units=km
new line.TR10623390 bus1=BMT171218840.3,bus2=BMT6885986B.3,Phases=1,Linecode=CAB202_3_1,Length=0.148194000,Units=km
new line.TR10623397 bus1=BMT6885986B.3,bus2=BMT6885993B.3,Phases=1,Linecode=CAB202_3_1,Length=0.128241000,Units=km
new line.TR10623404 bus1=BMT6885993B.3,bus2=BMT6886000B.3,Phases=1,Linecode=CAB202_3_1,Length=0.130704000,Units=km
new line.TR10623411 bus1=BMT6886000B.3,bus2=BMT171218842.3,Phases=1,Linecode=CAB202_3_1,Length=0.110835000,Units=km
new line.TR10623607 bus1=BMT163874187.1,bus2=BMT6886126B.1,Phases=1,Linecode=CAB202_3_1,Length=0.039816000,Units=km
new line.TR10623614 bus1=BMT6886126B.1,bus2=BMT6886133B.1,Phases=1,Linecode=CAB202_3_1,Length=0.045641000,Units=km
new line.TR10623621 bus1=BMT6886133B.1,bus2=BMT6886140B.1,Phases=1,Linecode=CAB202_3_1,Length=0.068235000,Units=km
new line.TR10623628 bus1=BMT6886140B.1,bus2=BMT163874191.1,Phases=1,Linecode=CAB202_3_1,Length=0.096994000,Units=km
new line.TR10628794 bus1=BMT163874993.3,bus2=BMT163874996.3,Phases=1,Linecode=CAB202_3_1,Length=0.131003000,Units=km
new line.TR10788968 bus1=BMT167711125.1.2.3,bus2=BMT848529B.1.2.3,Phases=3,Linecode=CAB104_3_3,Length=0.013998000,Units=km
new line.TR10789031 bus1=BMT167711125.1.2.3,bus2=BMT848508B.1.2.3,Phases=3,Linecode=CAB103_3_3,Length=0.009998000,Units=km
new line.TR10789038 bus1=BMT167711125.1.2.3,bus2=BMT167711127.1.2.3,Phases=3,Linecode=CAB103_3_3,Length=0.032134000,Units=km
new line.TR10796920 bus1=BMT163874643.2,bus2=BMT7055092B.2,Phases=1,Linecode=CAB202_3_1,Length=0.180656000,Units=km
new line.TR10796927 bus1=BMT7055092B.2,bus2=BMT163874645.2,Phases=1,Linecode=CAB202_3_1,Length=0.059805000,Units=km
new line.TR10800322 bus1=BMT163873566.3,bus2=BMT7057402B.3,Phases=1,Linecode=CAB202_3_1,Length=0.051875000,Units=km
new line.TR10800329 bus1=BMT7057402B.3,bus2=BMT7057416B.3,Phases=1,Linecode=CAB202_3_1,Length=0.048365000,Units=km
new line.TR10800336 bus1=BMT7057416B.3,bus2=BMT163873568.3,Phases=1,Linecode=CAB202_3_1,Length=0.092783000,Units=km
new line.TR11316901 bus1=BMT163874085.3,bus2=BMT7522307B.3,Phases=1,Linecode=CAB202_3_1,Length=0.200716000,Units=km
new line.TR11316908 bus1=BMT7522307B.3,bus2=BMT7522314B.3,Phases=1,Linecode=CAB202_3_1,Length=0.103972000,Units=km
new line.TR11316915 bus1=BMT7522314B.3,bus2=BMT163874087.3,Phases=1,Linecode=CAB202_3_1,Length=0.111585000,Units=km
new line.TR11327303 bus1=BMT163873975.1,bus2=BMT163873976.1,Phases=1,Linecode=CAB202_3_1,Length=0.290340000,Units=km
new line.TR11327324 bus1=BMT163873976.1,bus2=BMT163873977.1,Phases=1,Linecode=CAB202_3_1,Length=0.034919000,Units=km
new line.TR11516933 bus1=BMT163875589.3,bus2=BMT163875592.3,Phases=1,Linecode=CAB103_3_1,Length=0.026396000,Units=km
new line.TR11519705 bus1=BMT7731446B.1.2.3,bus2=BMT163873746.1.2.3,Phases=3,Linecode=CABA06_3_3,Length=0.016760000,Units=km
new line.TR11519712 bus1=BMT163873746.1.2.3,bus2=BMT7731460B.1.2.3,Phases=3,Linecode=CABA06_3_3,Length=0.036993000,Units=km
new line.TR11519719 bus1=BMT7731460B.1.2.3,bus2=BMT7731467B.1.2.3,Phases=3,Linecode=CABA06_3_3,Length=0.035461000,Units=km
new line.TR11519726 bus1=BMT7731467B.1.2.3,bus2=BMT163873747.1.2.3,Phases=3,Linecode=CABA06_3_3,Length=0.035840000,Units=km
new line.TR11519733 bus1=BMT163873747.1.2.3,bus2=BMT7731481B.1.2.3,Phases=3,Linecode=CABA06_3_3,Length=0.038903000,Units=km
new line.TR11519754 bus1=BMT7731488B.1.2.3,bus2=BMT7731502B.1.2.3,Phases=3,Linecode=CABA06_3_3,Length=0.044768000,Units=km
new line.TR11519761 bus1=BMT7731502B.1.2.3,bus2=BMT163873748.1.2.3,Phases=3,Linecode=CABA06_3_3,Length=0.026396000,Units=km
new line.TR11519768 bus1=BMT163873748.1.2.3,bus2=BMT7731516B.1.2.3,Phases=3,Linecode=CABA06_3_3,Length=0.027308000,Units=km
new line.TR11519831 bus1=BMT7731516B.1.2.3,bus2=BMT163873749.1.2.3,Phases=3,Linecode=CABA06_3_3,Length=0.025957000,Units=km
new line.TR11519978 bus1=BMT7731481B.1.2.3,bus2=BMT7731488B.1.2.3,Phases=3,Linecode=CABA06_3_3,Length=0.042039000,Units=km
new line.TR1169316 bus1=BMT777157B.1.2.3,bus2=BMT777339B.1.2.3,Phases=3,Linecode=CAB103_3_3,Length=0.027290000,Units=km
new line.TR1169414 bus1=BMT165118582.1.2.3,bus2=BMT163874418.1.2.3,Phases=3,Linecode=CAB103_3_3,Length=0.072787000,Units=km
new line.TR1169421 bus1=BMT165118582.1.2.3,bus2=BMT163874419.1.2.3,Phases=3,Linecode=CAB203_3_3,Length=0.016760000,Units=km
new line.TR10206855 bus1=BMT166137068.2,bus2=BMT6371199B.2,Phases=1,Linecode=CAB202_3_1,Length=0.060622000,Units=km
new line.TR10206862 bus1=BMT6371199B.2,bus2=BMT6371206B.2,Phases=1,Linecode=CAB202_3_1,Length=0.051532000,Units=km
new line.TR10409932 bus1=BMT163875156.1,bus2=BMT163875159.1,Phases=1,Linecode=CAB103_3_1,Length=0.028155000,Units=km
new line.TR10723742 bus1=BMT6958576B.1,bus2=BMT6958583B.1,Phases=1,Linecode=CAB202_3_1,Length=0.182944000,Units=km
new line.TR10728425 bus1=BMT164200651.2,bus2=BMT164200654.2,Phases=1,Linecode=CAB103_3_1,Length=0.028631000,Units=km
new line.TR11425485 bus1=BMT163874329.1.2.3,bus2=BMT7631458B.1.2.3,Phases=3,Linecode=CABA06_3_3,Length=0.030670000,Units=km
new line.TR11425527 bus1=BMT7631458B.1.2.3,bus2=BMT7631465B.1.2.3,Phases=3,Linecode=CABA06_3_3,Length=0.035107000,Units=km
new line.TR11425534 bus1=BMT7631465B.1.2.3,bus2=BMT7631472B.1.2.3,Phases=3,Linecode=CABA06_3_3,Length=0.034778000,Units=km
new line.TR11425541 bus1=BMT7631472B.1.2.3,bus2=BMT7631479B.1.2.3,Phases=3,Linecode=CABA06_3_3,Length=0.034169000,Units=km
new line.TR11425548 bus1=BMT7631479B.1.2.3,bus2=BMT7631486B.1.2.3,Phases=3,Linecode=CABA06_3_3,Length=0.026244000,Units=km
new line.TR11425555 bus1=BMT7631486B.1.2.3,bus2=BMT7631493B.1.2.3,Phases=3,Linecode=CABA06_3_3,Length=0.032305000,Units=km
new line.TR11425562 bus1=BMT7631493B.1.2.3,bus2=BMT163874331.1.2.3,Phases=3,Linecode=CABA06_3_3,Length=0.026244000,Units=km
new line.TR11426010 bus1=BMT849187B.1.2.3,bus2=BMT172752125.1.2.3,Phases=3,Linecode=CAB102_3_3,Length=0.013151000,Units=km
new line.TR11426017 bus1=BMT172752125.1.2.3,bus2=BMT172752133.1.2.3,Phases=3,Linecode=CAB102_3_3,Length=0.016276000,Units=km
new line.TR11426031 bus1=BMT847297B.1.2.3,bus2=BMT163873642.1.2.3,Phases=3,Linecode=CABA08_3_3,Length=0.014140000,Units=km
new line.TR11426038 bus1=BMT847304B.1.2.3,bus2=BMT163873642.1.2.3,Phases=3,Linecode=CABA08_3_3,Length=0.022019000,Units=km
new line.TR11426164 bus1=BMT165118569.1.2.3,bus2=BMT165118571.1.2.3,Phases=3,Linecode=CAB103_3_3,Length=0.024203000,Units=km
new line.TR11426171 bus1=BMT165118571.1.2.3,bus2=BMT165118572.1.2.3,Phases=3,Linecode=CABA06_3_3,Length=0.037329000,Units=km
new line.TR11426360 bus1=BMT167711129.1.2.3,bus2=BMT848445B.1.2.3,Phases=3,Linecode=CABA06_3_3,Length=0.029994000,Units=km
new line.TR11426388 bus1=BMT848445B.1.2.3,bus2=BMT848438B.1.2.3,Phases=3,Linecode=CABA06_3_3,Length=0.041609000,Units=km
new line.TR11426395 bus1=BMT848438B.1.2.3,bus2=BMT7632102B.1.2.3,Phases=3,Linecode=CABA06_3_3,Length=0.038992000,Units=km
new line.TR11426402 bus1=BMT7632102B.1.2.3,bus2=BMT7632109B.1.2.3,Phases=3,Linecode=CABA06_3_3,Length=0.039917000,Units=km
new line.TR11426409 bus1=BMT7632109B.1.2.3,bus2=BMT163874288.1.2.3,Phases=3,Linecode=CABA06_3_3,Length=0.041223000,Units=km
new line.TR11426416 bus1=BMT167707736.1.2.3,bus2=BMT7632123B.1.2.3,Phases=3,Linecode=CABA06_3_3,Length=0.034533000,Units=km
new line.TR11426430 bus1=BMT7632095B.1.2.3,bus2=BMT167707738.1.2.3,Phases=3,Linecode=CABA06_3_3,Length=0.044263000,Units=km
new line.TR11426493 bus1=BMT172752125.1.2.3,bus2=BMT7632270B.1.2.3,Phases=3,Linecode=CABA06_3_3,Length=0.034199000,Units=km
new line.TR11426500 bus1=BMT7632270B.1.2.3,bus2=BMT7632277B.1.2.3,Phases=3,Linecode=CABA06_3_3,Length=0.036393000,Units=km
new line.TR11426507 bus1=BMT7632277B.1.2.3,bus2=BMT7632284B.1.2.3,Phases=3,Linecode=CABA06_3_3,Length=0.036393000,Units=km
new line.TR11426514 bus1=BMT7632284B.1.2.3,bus2=BMT7632291B.1.2.3,Phases=3,Linecode=CABA06_3_3,Length=0.035433000,Units=km
new line.TR11426521 bus1=BMT7632291B.1.2.3,bus2=BMT7632298B.1.2.3,Phases=3,Linecode=CABA06_3_3,Length=0.033235000,Units=km
new line.TR11426528 bus1=BMT7632298B.1.2.3,bus2=BMT7632305B.1.2.3,Phases=3,Linecode=CABA06_3_3,Length=0.036393000,Units=km
new line.TR11426542 bus1=BMT7632305B.1.2.3,bus2=BMT172752134.1.2.3,Phases=3,Linecode=CABA06_3_3,Length=0.035433000,Units=km
new line.TR11426605 bus1=BMT165648117.1.2.3,bus2=BMT3641417B.1.2.3,Phases=3,Linecode=CABA06_3_3,Length=0.045268000,Units=km
new line.TR11426612 bus1=BMT3641417B.1.2.3,bus2=BMT7632403B.1.2.3,Phases=3,Linecode=CABA06_3_3,Length=0.042536000,Units=km
new line.TR11426619 bus1=BMT7632403B.1.2.3,bus2=BMT165648119.1.2.3,Phases=3,Linecode=CABA06_3_3,Length=0.042536000,Units=km
new line.TR11427270 bus1=BMT163874872.2,bus2=BMT7633152B.2,Phases=1,Linecode=CAB202_3_1,Length=0.075566000,Units=km
new line.TR11427298 bus1=BMT7633152B.2,bus2=BMT7633159B.2,Phases=1,Linecode=CAB202_3_1,Length=0.096018000,Units=km
new line.TR11427389 bus1=BMT7633159B.2,bus2=BMT7633166B.2,Phases=1,Linecode=CAB202_3_1,Length=0.099293000,Units=km
new line.TR11427396 bus1=BMT7633166B.2,bus2=BMT7633173B.2,Phases=1,Linecode=CAB202_3_1,Length=0.066894000,Units=km
new line.TR11427403 bus1=BMT7633173B.2,bus2=BMT7633180B.2,Phases=1,Linecode=CAB202_3_1,Length=0.131181000,Units=km
new line.TR11427410 bus1=BMT7633180B.2,bus2=BMT7633194B.2,Phases=1,Linecode=CAB202_3_1,Length=0.125288000,Units=km
new line.TR11427417 bus1=BMT7633194B.2,bus2=BMT163874873.2,Phases=1,Linecode=CAB202_3_1,Length=0.074130000,Units=km
new line.TR1165088 bus1=BMT165118575.1.2.3,bus2=BMT776772B.1.2.3,Phases=3,Linecode=CABA08_3_3,Length=0.036339000,Units=km
new line.TR1165109 bus1=BMT774791B.1.2.3,bus2=BMT165118575.1.2.3,Phases=3,Linecode=CAB104_3_3,Length=0.037476000,Units=km
new line.TR1165151 bus1=BMT165118576.1.2.3,bus2=BMT774791B.1.2.3,Phases=3,Linecode=CAB104_3_3,Length=0.029269000,Units=km
new line.TR1165158 bus1=BMT165118576.1.2.3,bus2=BMT165118577.1.2.3,Phases=3,Linecode=CAB103_3_3,Length=0.014315000,Units=km
new line.TR1165165 bus1=BMT165118576.1.2.3,bus2=BMT777591B.1.2.3,Phases=3,Linecode=CAB102_3_3,Length=0.034778000,Units=km
new line.TR1165179 bus1=BMT774819B.1.2.3,bus2=BMT777325B.1.2.3,Phases=3,Linecode=CAB103_3_3,Length=0.032382000,Units=km
new line.TR1165193 bus1=BMT774826B.1.2.3,bus2=BMT774819B.1.2.3,Phases=3,Linecode=CAB103_3_3,Length=0.034359000,Units=km
new line.TR1165207 bus1=BMT165118577.1.2.3,bus2=BMT774840B.1.2.3,Phases=3,Linecode=CAB103_3_3,Length=0.007809000,Units=km
new line.TR1165214 bus1=BMT165118577.1.2.3,bus2=BMT774847B.1.2.3,Phases=3,Linecode=CAB103_3_3,Length=0.026168000,Units=km
new line.TR1165221 bus1=BMT774840B.1.2.3,bus2=BMT774826B.1.2.3,Phases=3,Linecode=CAB103_3_3,Length=0.031569000,Units=km
new line.TR1165235 bus1=BMT774847B.1.2.3,bus2=BMT165118580.1.2.3,Phases=3,Linecode=CAB103_3_3,Length=0.026301000,Units=km
new line.TR1165256 bus1=BMT165118580.1.2.3,bus2=BMT774861B.1.2.3,Phases=3,Linecode=CAB103_3_3,Length=0.024327000,Units=km
new line.TR1165277 bus1=BMT774861B.1.2.3,bus2=BMT774889B.1.2.3,Phases=3,Linecode=CAB103_3_3,Length=0.035504000,Units=km
new line.TR10226700 bus1=BMT6401901B.2,bus2=BMT163875367.2,Phases=1,Linecode=CAB202_3_1,Length=0.133964000,Units=km
new line.TR10368870 bus1=BMT163875633.2,bus2=BMT163875634.2,Phases=1,Linecode=CAB202_3_1,Length=0.152237000,Units=km
new line.TR10368877 bus1=BMT163875634.2,bus2=BMT163875635.2,Phases=1,Linecode=CAB202_3_1,Length=0.027014000,Units=km
new line.TR10368884 bus1=BMT163875635.2,bus2=BMT6623675B.2,Phases=1,Linecode=CAB202_3_1,Length=0.113204000,Units=km
new line.TR10368891 bus1=BMT6623675B.2,bus2=BMT6623682B.2,Phases=1,Linecode=CAB202_3_1,Length=0.117697000,Units=km
new line.TR10368898 bus1=BMT6623682B.2,bus2=BMT6623689B.2,Phases=1,Linecode=CAB202_3_1,Length=0.106234000,Units=km
new line.TR10368905 bus1=BMT6623689B.2,bus2=BMT6623696B.2,Phases=1,Linecode=CAB202_3_1,Length=0.081378000,Units=km
new line.TR10368912 bus1=BMT6623696B.2,bus2=BMT163875637.2,Phases=1,Linecode=CAB202_3_1,Length=0.096584000,Units=km
new line.TR10368919 bus1=BMT163875634.2,bus2=BMT163875636.2,Phases=1,Linecode=CAB103_3_1,Length=0.024996000,Units=km
new line.TR10740486 bus1=BMT171980014.1.2.3,bus2=BMT165646445.1.2.3,Phases=3,Linecode=CABA06_3_3,Length=0.031315000,Units=km
new line.TR10740493 bus1=BMT165648116.1.2.3,bus2=BMT776849B.1.2.3,Phases=3,Linecode=CABA06_3_3,Length=0.038463000,Units=km
new line.TR10740500 bus1=BMT776849B.1.2.3,bus2=BMT776835B.1.2.3,Phases=3,Linecode=CABA06_3_3,Length=0.039817000,Units=km
new line.TR10740507 bus1=BMT776835B.1.2.3,bus2=BMT776821B.1.2.3,Phases=3,Linecode=CABA06_3_3,Length=0.040698000,Units=km
new line.TR10740514 bus1=BMT776821B.1.2.3,bus2=BMT165648117.1.2.3,Phases=3,Linecode=CABA06_3_3,Length=0.034879000,Units=km
new line.TR10740521 bus1=BMT165648117.1.2.3,bus2=BMT165648118.1.2.3,Phases=3,Linecode=CABA06_3_3,Length=0.040105000,Units=km
new line.TR10744280 bus1=BMT163875526.1,bus2=BMT7006267B.1,Phases=1,Linecode=CAB202_3_1,Length=0.112785000,Units=km
new line.TR10744287 bus1=BMT7006267B.1,bus2=BMT7006274B.1,Phases=1,Linecode=CAB202_3_1,Length=0.116988000,Units=km
new line.TR10744294 bus1=BMT7006274B.1,bus2=BMT7006281B.1,Phases=1,Linecode=CAB202_3_1,Length=0.218568000,Units=km
new line.TR10744301 bus1=BMT7006281B.1,bus2=BMT7006288B.1,Phases=1,Linecode=CAB202_3_1,Length=0.114570000,Units=km
new line.TR10744308 bus1=BMT7006288B.1,bus2=BMT7006302B.1,Phases=1,Linecode=CAB202_3_1,Length=0.075706000,Units=km
new line.TR10744315 bus1=BMT7006302B.1,bus2=BMT163875527.1,Phases=1,Linecode=CAB202_3_1,Length=0.094034000,Units=km
new line.TR10744350 bus1=BMT163875527.1,bus2=BMT163875528.1,Phases=1,Linecode=CAB202_3_1,Length=0.089296000,Units=km
new line.TR10744469 bus1=BMT163875527.1,bus2=BMT163875529.1,Phases=1,Linecode=CAB103_3_1,Length=0.058541000,Units=km
new line.TR11293801 bus1=BMT163874540.1.2.3,bus2=BMT163874541.1.2.3,Phases=3,Linecode=CAB103_3_3,Length=0.021256000,Units=km
new line.TR11491684 bus1=BMT163875512.1.2.3,bus2=BMT163875515.1.2.3,Phases=3,Linecode=CAB202_3_3,Length=0.103832000,Units=km
new line.TR11491698 bus1=BMT163875515.1.2.3,bus2=BMT163875516.1.2.3,Phases=3,Linecode=CAB202_3_3,Length=0.137298000,Units=km
new line.TR11491712 bus1=BMT163875516.1.2.3,bus2=BMT7698301B.1.2.3,Phases=3,Linecode=CAB202_3_3,Length=0.096091000,Units=km
new line.TR11491719 bus1=BMT7698301B.1.2.3,bus2=BMT163875518.1.2.3,Phases=3,Linecode=CAB202_3_3,Length=0.119838000,Units=km
new line.TR11491747 bus1=BMT163875515.1.2.3,bus2=BMT163875517.1.2.3,Phases=3,Linecode=CAB202_3_3,Length=0.093993000,Units=km
new line.TR1166887 bus1=BMT775806B.1.2.3,bus2=BMT775820B.1.2.3,Phases=3,Linecode=CAB107_3_3,Length=0.042712000,Units=km
new line.TR1166901 bus1=BMT775820B.1.2.3,bus2=BMT775834B.1.2.3,Phases=3,Linecode=CAB107_3_3,Length=0.032196000,Units=km
new line.TR1166929 bus1=BMT775834B.1.2.3,bus2=BMT163874264.1.2.3,Phases=3,Linecode=CAB107_3_3,Length=0.020805000,Units=km
new line.TR1166978 bus1=BMT163874264.1.2.3,bus2=BMT163874265.1.2.3,Phases=3,Linecode=CAB107_3_3,Length=0.045598000,Units=km
new line.TR1166985 bus1=BMT163874266.1.2.3,bus2=BMT163874267.1.2.3,Phases=3,Linecode=CAB103_3_3,Length=0.077089000,Units=km
new line.TR1167076 bus1=BMT168969893.2,bus2=BMT163874641.2,Phases=1,Linecode=CAB202_3_1,Length=0.013599000,Units=km
new line.TR1167153 bus1=BMT171979997.1.2.3,bus2=BMT775918B.1.2.3,Phases=3,Linecode=CAB103_3_3,Length=0.025313000,Units=km
new line.TR1167160 bus1=BMT171979997.1.2.3,bus2=BMT775967B.1.2.3,Phases=3,Linecode=CAB103_3_3,Length=0.009218000,Units=km
new line.TR1167167 bus1=BMT171979997.1.2.3,bus2=BMT775988B.1.2.3,Phases=3,Linecode=CAB103_3_3,Length=0.012040000,Units=km
new line.TR1167181 bus1=BMT775967B.1.2.3,bus2=BMT171979998.1.2.3,Phases=3,Linecode=CAB103_3_3,Length=0.033535000,Units=km
new line.TR1167195 bus1=BMT171979996.1.2.3,bus2=BMT171979997.1.2.3,Phases=3,Linecode=CAB103_3_3,Length=0.025490000,Units=km
new line.TR1167209 bus1=BMT165117343.1.2.3,bus2=BMT163874364.1.2.3,Phases=3,Linecode=CAB104_3_3,Length=0.038632000,Units=km
new line.TR1167223 bus1=BMT775988B.1.2.3,bus2=BMT776002B.1.2.3,Phases=3,Linecode=CAB103_3_3,Length=0.038463000,Units=km
new line.TR1167237 bus1=BMT776002B.1.2.3,bus2=BMT777052B.1.2.3,Phases=3,Linecode=CAB103_3_3,Length=0.032243000,Units=km
new line.TR1167286 bus1=BMT163874272.2,bus2=BMT776037B.2,Phases=1,Linecode=CAB103_3_1,Length=0.027653000,Units=km
new line.TR1167300 bus1=BMT776037B.2,bus2=BMT776044B.2,Phases=1,Linecode=CAB103_3_1,Length=0.022557000,Units=km
new line.TR1167314 bus1=BMT776044B.2,bus2=BMT776051B.2,Phases=1,Linecode=CAB103_3_1,Length=0.020612000,Units=km
new line.TR1167328 bus1=BMT776051B.2,bus2=BMT775540B.2,Phases=1,Linecode=CAB103_3_1,Length=0.022200000,Units=km
new line.TR1167335 bus1=BMT776051B.2,bus2=BMT776058B.2,Phases=1,Linecode=CAB103_3_1,Length=0.013151000,Units=km
new line.TR1167342 bus1=BMT776051B.2,bus2=BMT776072B.2,Phases=1,Linecode=CAB103_3_1,Length=0.018436000,Units=km
new line.TR1167356 bus1=BMT776058B.2,bus2=BMT163874273.2,Phases=1,Linecode=CAB103_3_1,Length=0.036242000,Units=km
new line.TR1167566 bus1=BMT776212B.1.2.3,bus2=BMT171980012.1.2.3,Phases=3,Linecode=CAB103_3_3,Length=0.040440000,Units=km
new line.TR1167580 bus1=BMT171980012.1.2.3,bus2=BMT776233B.1.2.3,Phases=3,Linecode=CAB103_3_3,Length=0.025175000,Units=km
new line.TR1167615 bus1=BMT776233B.1.2.3,bus2=BMT776226B.1.2.3,Phases=3,Linecode=CAB103_3_3,Length=0.005385000,Units=km
new line.TR1167622 bus1=BMT776233B.1.2.3,bus2=BMT776240B.1.2.3,Phases=3,Linecode=CAB103_3_3,Length=0.021951000,Units=km
new line.TR1167629 bus1=BMT776233B.1.2.3,bus2=BMT776247B.1.2.3,Phases=3,Linecode=CAB103_3_3,Length=0.015130000,Units=km
new line.TR1167643 bus1=BMT776240B.1.2.3,bus2=BMT171980013.1.2.3,Phases=3,Linecode=CAB103_3_3,Length=0.032243000,Units=km
new line.TR1167755 bus1=BMT163874388.1.2.3,bus2=BMT171980015.1.2.3,Phases=3,Linecode=CAB103_3_3,Length=0.040440000,Units=km
new line.TR1167804 bus1=BMT776303B.1.2.3,bus2=BMT776310B.1.2.3,Phases=3,Linecode=CABA08_3_3,Length=0.030408000,Units=km
new line.TR1167825 bus1=BMT776310B.1.2.3,bus2=BMT165117342.1.2.3,Phases=3,Linecode=CABA08_3_3,Length=0.037649000,Units=km
new line.TR1167846 bus1=BMT165117342.1.2.3,bus2=BMT165117343.1.2.3,Phases=3,Linecode=CABA08_3_3,Length=0.009218000,Units=km
new line.TR1167853 bus1=BMT165117342.1.2.3,bus2=BMT163874362.1.2.3,Phases=3,Linecode=CABA08_3_3,Length=0.026301000,Units=km
new line.TR1167860 bus1=BMT165117342.1.2.3,bus2=BMT776338B.1.2.3,Phases=3,Linecode=CABA08_3_3,Length=0.006082000,Units=km
new line.TR1167867 bus1=BMT165118568.1.2.3,bus2=BMT165118569.1.2.3,Phases=3,Linecode=CABA08_3_3,Length=0.030588000,Units=km
new line.TR1167881 bus1=BMT165118569.1.2.3,bus2=BMT165118570.1.2.3,Phases=3,Linecode=CABA08_3_3,Length=0.038111000,Units=km
new line.TR1167937 bus1=BMT776366B.1.2.3,bus2=BMT776373B.1.2.3,Phases=3,Linecode=CABA08_3_3,Length=0.007279000,Units=km
new line.TR1167979 bus1=BMT776380B.1.2.3,bus2=BMT776366B.1.2.3,Phases=3,Linecode=CABA08_3_3,Length=0.025294000,Units=km
new line.TR1168077 bus1=BMT776457B.1.2.3,bus2=BMT165118581.1.2.3,Phases=3,Linecode=CAB103_3_3,Length=0.034359000,Units=km
new line.TR1168084 bus1=BMT165118581.1.2.3,bus2=BMT776471B.1.2.3,Phases=3,Linecode=CAB103_3_3,Length=0.033728000,Units=km
new line.TR1168091 bus1=BMT776471B.1.2.3,bus2=BMT776478B.1.2.3,Phases=3,Linecode=CAB103_3_3,Length=0.033520000,Units=km
new line.TR1168105 bus1=BMT776478B.1.2.3,bus2=BMT165118582.1.2.3,Phases=3,Linecode=CAB103_3_3,Length=0.064245000,Units=km
new line.TR1168112 bus1=BMT776485B.1.2.3,bus2=BMT163874351.1.2.3,Phases=3,Linecode=CAB102_3_3,Length=0.024182000,Units=km
new line.TR1168126 bus1=BMT163874351.1.2.3,bus2=BMT776499B.1.2.3,Phases=3,Linecode=CAB102_3_3,Length=0.028438000,Units=km
new line.TR1168133 bus1=BMT163874353.1.2.3,bus2=BMT163874354.1.2.3,Phases=3,Linecode=CAB103_3_3,Length=0.024592000,Units=km
new line.TR1168147 bus1=BMT776499B.1.2.3,bus2=BMT776506B.1.2.3,Phases=3,Linecode=CAB102_3_3,Length=0.025313000,Units=km
new line.TR1168161 bus1=BMT776506B.1.2.3,bus2=BMT163874352.1.2.3,Phases=3,Linecode=CAB102_3_3,Length=0.030260000,Units=km
new line.TR1168238 bus1=BMT776576B.1.2.3,bus2=BMT776688B.1.2.3,Phases=3,Linecode=CAB103_3_3,Length=0.029269000,Units=km
new line.TR1168252 bus1=BMT776583B.1.2.3,bus2=BMT776590B.1.2.3,Phases=3,Linecode=CAB103_3_3,Length=0.004123000,Units=km
new line.TR1168273 bus1=BMT776590B.1.2.3,bus2=BMT776576B.1.2.3,Phases=3,Linecode=CAB103_3_3,Length=0.036490000,Units=km
new line.TR1168294 bus1=BMT776597B.1.2.3,bus2=BMT776583B.1.2.3,Phases=3,Linecode=CAB103_3_3,Length=0.026301000,Units=km
new line.TR1168329 bus1=BMT776611B.1.2.3,bus2=BMT776597B.1.2.3,Phases=3,Linecode=CAB103_3_3,Length=0.023341000,Units=km
new line.TR1168364 bus1=BMT163874384.1.2.3,bus2=BMT1067797B.1.2.3,Phases=3,Linecode=CAB103_3_3,Length=0.032134000,Units=km
new line.TR1168371 bus1=BMT171980011.1.2.3,bus2=BMT163874384.1.2.3,Phases=3,Linecode=CAB103_3_3,Length=0.016122000,Units=km
new line.TR1168378 bus1=BMT171980011.1.2.3,bus2=BMT776639B.1.2.3,Phases=3,Linecode=CAB103_3_3,Length=0.013339000,Units=km
new line.TR1168385 bus1=BMT171980011.1.2.3,bus2=BMT776646B.1.2.3,Phases=3,Linecode=CAB103_3_3,Length=0.023083000,Units=km
new line.TR1168399 bus1=BMT776639B.1.2.3,bus2=BMT776212B.1.2.3,Phases=3,Linecode=CAB103_3_3,Length=0.041585000,Units=km
new line.TR1168420 bus1=BMT776653B.1.2.3,bus2=BMT171980011.1.2.3,Phases=3,Linecode=CAB103_3_3,Length=0.013151000,Units=km
new line.TR1168441 bus1=BMT776660B.1.2.3,bus2=BMT776653B.1.2.3,Phases=3,Linecode=CAB103_3_3,Length=0.031251000,Units=km
new line.TR1168455 bus1=BMT171980005.1.2.3,bus2=BMT776660B.1.2.3,Phases=3,Linecode=CAB103_3_3,Length=0.027290000,Units=km
new line.TR1168476 bus1=BMT776674B.1.2.3,bus2=BMT171980005.1.2.3,Phases=3,Linecode=CAB103_3_3,Length=0.031395000,Units=km
new line.TR1168504 bus1=BMT171980004.1.2.3,bus2=BMT776674B.1.2.3,Phases=3,Linecode=CAB103_3_3,Length=0.030260000,Units=km
...
