CemigDFeeders/IIIU12/IIIU12SegmentosBT.dss
new line.11992163 bus1=BBT3083006.1.2.0,bus2=BBT3083013.1.2.0,Phases=2,Linecode=BT316_BT316_7_2_1,Length=0.000500000,Units=km
new line.12002964 bus1=BBT2857844.1.2.0,bus2=BBT2857851.1.2.0,Phases=2,Linecode=BT316_BT316_7_2_1,Length=0.000500000,Units=km
new line.12004238 bus1=BBT2858117.1.2.0,bus2=BBT2858124.1.2.0,Phases=2,Linecode=BT316_BT316_7_2_1,Length=0.000500000,Units=km
new line.12004266 bus1=BBT2858187.1.2.0,bus2=BBT2858194.1.2.0,Phases=2,Linecode=BT316_BT316_7_2_1,Length=0.000500000,Units=km
new line.12455752 bus1=BBT2951630.1.2.0,bus2=BBT3046872.1.2.0,Phases=2,Linecode=BT107_BT107_7_2_1,Length=0.042054000,Units=km
new line.12722788 bus1=BBT3170051.1.2.0,bus2=BBT3170058.1.2.0,Phases=2,Linecode=BT316_BT316_7_2_1,Length=0.000500000,Units=km
new line.12863950 bus1=BBT3076510.1.2.0,bus2=BBT3076517.1.2.0,Phases=2,Linecode=BT316_BT316_7_2_1,Length=0.000500000,Units=km
new line.12866484 bus1=BBT3077819.1.2.0,bus2=BBT3077826.1.2.0,Phases=2,Linecode=BT316_BT316_7_2_1,Length=0.000500000,Units=km
new line.12876907 bus1=BBT3083034.1.2.0,bus2=BBT3083041.1.2.0,Phases=2,Linecode=BT316_BT316_7_2_1,Length=0.000500000,Units=km
new line.12888506 bus1=BBT3088571.1.2.0,bus2=BBT3088578.1.2.0,Phases=2,Linecode=BT316_BT316_7_2_1,Length=0.000500000,Units=km
new line.12889668 bus1=BBT3089019.1.2.0,bus2=BBT3089026.1.2.0,Phases=2,Linecode=BT316_BT316_7_2_1,Length=0.000500000,Units=km
new line.12889815 bus1=BBT3089061.1.2.0,bus2=BBT3089068.1.2.0,Phases=2,Linecode=BT316_BT316_7_2_1,Length=0.000500000,Units=km
new line.12889955 bus1=BBT3089124.1.2.0,bus2=BBT3089131.1.2.0,Phases=2,Linecode=BT316_BT316_7_2_1,Length=0.000500000,Units=km
new line.12889983 bus1=BBT3089110.1.2.0,bus2=BBT3089117.1.2.0,Phases=2,Linecode=BT316_BT316_7_2_1,Length=0.000500000,Units=km
new line.12890018 bus1=BBT3089096.1.2.0,bus2=BBT3089103.1.2.0,Phases=2,Linecode=BT316_BT316_7_2_1,Length=0.000500000,Units=km
new line.13077296 bus1=BBT3244489.1.2.0,bus2=BBT3244496.1.2.0,Phases=2,Linecode=BT304_BT304_7_2_1,Length=0.000500000,Units=km
new line.13090610 bus1=BBT3267141.1.2.0,bus2=BBT3267148.1.2.0,Phases=2,Linecode=BT304_BT304_7_2_1,Length=0.000500000,Units=km
new line.13092717 bus1=BBT3269801.1.2.0,bus2=BBT3269808.1.2.0,Phases=2,Linecode=BT316_BT316_7_2_1,Length=0.000500000,Units=km
new line.13094495 bus1=BBT3271607.1.2.0,bus2=BBT3271614.1.2.0,Phases=2,Linecode=BT316_BT316_7_2_1,Length=0.000500000,Units=km
new line.13099542 bus1=BBT3275520.1.2.0,bus2=BBT3275527.1.2.0,Phases=2,Linecode=BT316_BT316_7_2_1,Length=0.000500000,Units=km
new line.13309465 bus1=BBT3514171.1.2.0,bus2=BBT3514178.1.2.0,Phases=2,Linecode=BT316_BT316_7_2_1,Length=0.000500000,Units=km
new line.13315499 bus1=BBT3520933.1.2.0,bus2=BBT3520940.1.2.0,Phases=2,Linecode=BT316_BT316_7_2_1,Length=0.000500000,Units=km
new line.13417748 bus1=BBT3893844.1.2.3.0,bus2=BBT3893851.1.2.3.0,Phases=3,Linecode=BT308_BT308_7_3_1,Length=0.000500000,Units=km
new line.13587036 bus1=BBT4435035.1.2.0,bus2=BBT1096427.1.2.0,Phases=2,Linecode=BT108_BT107_7_2_1,Length=0.024182000,Units=km
new line.13587078 bus1=BBT4435203.1.2.0,bus2=BBT1096413.1.2.0,Phases=2,Linecode=BT808_BT808_4_2_3,Length=0.034706000,Units=km
new line.13587085 bus1=BBT4435203.1.2.0,bus2=BBT4435462.1.2.0,Phases=2,Linecode=BT808_BT808_4_2_3,Length=0.020096000,Units=km
new line.13587106 bus1=BBT4435462.1.2.0,bus2=BBT4435469.1.2.0,Phases=2,Linecode=BT808_BT808_4_2_3,Length=0.040845000,Units=km
new line.13587218 bus1=BBT4435294.1.2.0,bus2=BBT1096406.1.2.0,Phases=2,Linecode=BT808_BT808_4_2_3,Length=0.029405000,Units=km
new line.13587246 bus1=BBT4435427.1.2.0,bus2=BBT4435434.1.2.0,Phases=2,Linecode=BT807_BT807_4_2_3,Length=0.040845000,Units=km
new line.13587267 bus1=BBT4435448.1.2.0,bus2=BBT4435455.1.2.0,Phases=2,Linecode=BT808_BT808_4_2_3,Length=0.034706000,Units=km
new line.13587295 bus1=BBT4435420.1.2.0,bus2=BBT4435427.1.2.0,Phases=2,Linecode=BT807_BT807_4_2_3,Length=0.039917000,Units=km
new line.13587302 bus1=BBT4435413.1.2.0,bus2=BBT4435420.1.2.0,Phases=2,Linecode=BT513_BT513_7_2_1,Length=0.000500000,Units=km
new line.13587309 bus1=BBT4435420.1.2.0,bus2=BBT4435441.1.2.0,Phases=2,Linecode=BT808_BT808_4_2_3,Length=0.038992000,Units=km
new line.13587330 bus1=BBT4435441.1.2.0,bus2=BBT4435448.1.2.0,Phases=2,Linecode=BT808_BT808_4_2_3,Length=0.041621000,Units=km
new line.13587358 bus1=BBT4435469.1.2.0,bus2=BBT4435476.1.2.0,Phases=2,Linecode=BT808_BT808_4_2_3,Length=0.039917000,Units=km
new line.13587379 bus1=BBT4435476.1.2.0,bus2=BBT4435483.1.2.0,Phases=2,Linecode=BT808_BT808_4_2_3,Length=0.034533000,Units=km
new line.13595156 bus1=BBT4455972.1.2.0,bus2=BBT4455979.1.2.0,Phases=2,Linecode=BT808_BT808_4_2_3,Length=0.031380000,Units=km
new line.13595198 bus1=BBT4455979.1.2.0,bus2=BBT4455986.1.2.0,Phases=2,Linecode=BT808_BT808_4_2_3,Length=0.033611000,Units=km
new line.13595219 bus1=BBT4455951.1.2.0,bus2=BBT4455972.1.2.0,Phases=2,Linecode=BT807_BT807_4_2_3,Length=0.034665000,Units=km
...